 &OBCS_PARM01
 OBCSfixTopo=.FALSE.,
 OB_Jnorth= 200*-1,
 OB_Jsouth= 200*1,
 OB_Ieast = 200*-1,
 OB_Iwest = 200*1,
 useOBCSprescribe = .TRUE.,
 OBCS_monitorFreq= 1200.,
 OBCS_monSelect = 1,
 &

# Orlanski parameters
 &OBCS_PARM02
Cmax=0.45,
cVelTimeScale=1000.,
 &
