&packages
    usemnc = .true.
    useobcs = .true.
/
