# Packages
# useLayers=.TRUE.,
 &PACKAGES
 useOBCS=.TRUE.,
 usePtracers=.TRUE.,
 useRBCS=.TRUE.,
 &
