&obcs_parm01
    ob_ieast = -1
    ob_iwest = 1
    useobcsprescribe = .true.
    obwufile = 'obc_U.bin'
    obwtfile = 'obc_T.bin'
    obeufile = 'obc_U.bin'
    obetfile = 'obc_T.bin'
    obcs_monitorfreq = 1200.0
    obcs_monselect = 1
/

&obcs_parm02
/
