# Options for MITgcm's NetCDF package. Required if using NetCDF even
# when using defaults.
# Additional options:
# snapshot_mnc     = .false.,
# timeave_mnc      = .false.,
 &MNC_01
 mnc_use_outdir   = .false.,
 monitor_mnc      = .false.,
 pickup_read_mnc  = .false.,
 pickup_write_mnc = .false.,
 /
