# Packages
 &PACKAGES
 useOBCS=.TRUE.,
 usePtracers=.FALSE.,
 useRBCS=.FALSE.,
 &
