# Open-boundaries
 &OBCS_PARM01
 OB_Ieast = -1,
 OB_Iwest = 1,
 useOBCSprescribe = .true.,
 OBWuFile = 'obc_U.bin',
 OBWtFile = 'obc_T.bin',
 OBEuFile = 'obc_U.bin',
 OBEtFile = 'obc_T.bin',
 OBCS_monitorFreq = 1200.,
 OBCS_monSelect = 1,
 &

# Orlanski parameters
#Cmax=0.45,
#cVelTimeScale=1000.,
 &OBCS_PARM02
 &
