# Packages
 &PACKAGES
 useOBCS = .true.,
 useMNC  = .true.,
 &
