# Packages
 &PACKAGES
 useOBCS     = .true.,
 usePtracers = .true.,
 useRBCS     = .true.,
 useMNC      = .true.,
 /
