# Open-boundaries
# OBWuFile = 'obc_U.bin',
# OBWtFile = 'obc_T.bin',
# OBEuFile = 'obc_U.bin',
# OBEtFile = 'obc_T.bin',
# OB_Ieast = -1,
# OB_Iwest = 0,
 &OBCS_PARM01
 useOBCSprescribe = .true.,
 OBCS_monitorFreq = 1200.,
 OBCS_monSelect = 1,
 &
