&mnc_01
    pickup_write_mnc = .false.
/
