&packages
    useobcs = .true.
    useptracers = .false.
    userbcs = .false.
    usemnc = .true.
/
