&packages
    useobcs = .true.
    usemnc = .true.
/
