&obcs_parm01
    obcsfixtopo = .false.
    ob_ieast = 400
    ob_iwest = 1
    useobcsprescribe = .true.
    obcs_monitorfreq = 1200.0
    obcs_monselect = 1
    useorlanskieast = .true.
    obetfile = 'obc_east_T.bin'
    obeufile = 'obc_east_U.bin'
    useorlanskiwest = .true.
    obwtfile = 'obc_west_T.bin'
    obwufile = 'obc_west_U.bin'
/

&obcs_parm02
    cmax = 0.45
    cveltimescale = 1000
/

&obcs_parm03
    spongethickness = 50
    urelaxobcsbound = 10.0
    urelaxobcsinner = 0.0
    vrelaxobcsbound = 0.0
    vrelaxobcsinner = 0.0
/
