&obcs_parm01
    obcsfixtopo = .false.
    ob_jnorth = 80, 80, 80, 80, 80, 80, 80, 80, 80, 80, 80, 80, 80, 80,
                80, 80, 80, 80, 80, 80, 80, 80, 80, 80, 80, 80, 80, 80,
                80, 80, 80, 80, 80, 80, 80, 80, 80, 80, 80, 80, 80, 80,
                80, 80, 80, 80, 80, 80, 80, 80, 80, 80, 80, 80, 80, 80,
                80, 80, 80, 80, 80, 80, 80, 80, 80, 80, 80, 80, 80, 80,
                80, 80, 80, 80, 80, 80, 80, 80, 80, 80, 80, 80, 80, 80,
                80, 80, 80, 80, 80, 80, 80, 80, 80, 80, 80, 80, 80, 80,
                80, 80, 80, 80, 80, 80, 80, 80, 80, 80, 80, 80, 80, 80,
                80, 80, 80, 80, 80, 80, 80, 80, 80, 80, 80, 80, 80, 80,
                80, 80, 80, 80, 80, 80, 80, 80, 80, 80, 80, 80, 80, 80,
                80, 80, 80, 80, 80, 80, 80, 80, 80, 80, 80, 80, 80, 80,
                80, 80, 80, 80, 80, 80
    ob_jsouth = 1, 1, 1, 1, 1, 1, 1, 1, 1, 1, 1, 1, 1, 1, 1, 1, 1, 1, 1,
                1, 1, 1, 1, 1, 1, 1, 1, 1, 1, 1, 1, 1, 1, 1, 1, 1, 1, 1,
                1, 1, 1, 1, 1, 1, 1, 1, 1, 1, 1, 1, 1, 1, 1, 1, 1, 1, 1,
                1, 1, 1, 1, 1, 1, 1, 1, 1, 1, 1, 1, 1, 1, 1, 1, 1, 1, 1,
                1, 1, 1, 1, 1, 1, 1, 1, 1, 1, 1, 1, 1, 1, 1, 1, 1, 1, 1,
                1, 1, 1, 1, 1, 1, 1, 1, 1, 1, 1, 1, 1, 1, 1, 1, 1, 1, 1,
                1, 1, 1, 1, 1, 1, 1, 1, 1, 1, 1, 1, 1, 1, 1, 1, 1, 1, 1,
                1, 1, 1, 1, 1, 1, 1, 1, 1, 1, 1, 1, 1, 1, 1, 1, 1, 1, 1,
                1, 1, 1, 1, 1, 1, 1, 1
    ob_ieast = 160, 160, 160, 160, 160, 160, 160, 160, 160, 160, 160, 160,
               160, 160, 160, 160, 160, 160, 160, 160, 160, 160, 160, 160,
               160, 160, 160, 160, 160, 160, 160, 160, 160, 160, 160, 160,
               160, 160, 160, 160, 160, 160, 160, 160, 160, 160, 160, 160,
               160, 160, 160, 160, 160, 160, 160, 160, 160, 160, 160, 160,
               160, 160, 160, 160, 160, 160, 160, 160, 160, 160, 160, 160,
               160, 160, 160, 160, 160, 160, 160, 160
    ob_iwest = 1, 1, 1, 1, 1, 1, 1, 1, 1, 1, 1, 1, 1, 1, 1, 1, 1, 1, 1,
               1, 1, 1, 1, 1, 1, 1, 1, 1, 1, 1, 1, 1, 1, 1, 1, 1, 1, 1,
               1, 1, 1, 1, 1, 1, 1, 1, 1, 1, 1, 1, 1, 1, 1, 1, 1, 1, 1,
               1, 1, 1, 1, 1, 1, 1, 1, 1, 1, 1, 1, 1, 1, 1, 1, 1, 1, 1,
               1, 1, 1, 1
    useobcsprescribe = .true.
    obnufile = 'obc_north_U.bin'
    obsufile = 'obc_south_U.bin'
    obwufile = 'obc_west_U.bin'
    obeufile = 'obc_east_U.bin'
    obwwfile = 'obc_west_W.bin'
    obwsfile = 'obc_west_S.bin'
    obwptrfile(1) = 'OBzonalS.bin'
    obcs_monitorfreq = 1200.0
    obcs_monselect = 1
/

&obcs_parm02
/
